36
Created with MDTraj 1.9.1, 2018-10-15
H    5.135    2.459   -1.003
C    4.579    2.445   -0.077
H    4.428    3.458    0.278
H    5.153    1.902    0.668
C    3.270    1.724   -0.295
O    3.086    0.993   -1.227
N    2.308    1.980    0.645
H    2.669    2.325    1.506
C    1.187    1.072    0.812
H    0.634    1.452    1.664
C    0.242    1.100   -0.409
H    0.666    0.507   -1.205
H    0.239    2.123   -0.768
C   -1.176    0.658   -0.133
C   -2.049    1.187    0.754
H   -1.917    2.004    1.436
N   -3.252    0.531    0.699
H   -4.048    0.745    1.253
C   -3.180   -0.453   -0.248
C   -4.139   -1.377   -0.665
H   -5.123   -1.396   -0.231
C   -3.779   -2.261   -1.653
H   -4.494   -2.987   -1.999
C   -2.495   -2.237   -2.223
H   -2.250   -2.942   -2.997
C   -1.556   -1.323   -1.809
H   -0.578   -1.309   -2.256
C   -1.894   -0.409   -0.801
C    1.717   -0.304    1.265
O    2.791   -0.382    1.804
N    0.919   -1.369    1.099
H    0.030   -1.263    0.671
C    1.324   -2.684    1.547
H    1.442   -2.713    2.623
H    2.265   -2.969    1.095
H    0.562   -3.394    1.255
36
Created with MDTraj 1.9.1, 2018-10-15
H    3.807    2.167    2.876
C    3.504    2.862    2.099
H    4.349    3.057    1.455
H    3.180    3.783    2.570
C    2.400    2.221    1.289
O    2.612    1.692    0.233
N    1.155    2.320    1.842
H    1.159    2.563    2.808
C    0.073    1.427    1.476
H   -0.770    1.756    2.075
C   -0.347    1.586   -0.025
H    0.261    2.378   -0.432
H   -1.367    1.955   -0.041
C   -0.273    0.382   -0.929
C    0.832   -0.191   -1.459
H    1.855    0.086   -1.325
N    0.484   -1.260   -2.242
H    1.125   -1.833   -2.739
C   -0.877   -1.400   -2.239
C   -1.692   -2.330   -2.880
H   -1.274   -3.103   -3.502
C   -3.051   -2.227   -2.692
H   -3.707   -2.930   -3.173
C   -3.597   -1.218   -1.885
H   -4.664   -1.161   -1.763
C   -2.786   -0.300   -1.257
H   -3.221    0.476   -0.651
C   -1.398   -0.383   -1.426
C    0.375    0.008    1.995
O    1.399   -0.236    2.573
N   -0.632   -0.887    1.889
H   -1.324   -0.725    1.193
C   -0.422   -2.267    2.275
H   -1.370   -2.785    2.229
H   -0.046   -2.309    3.287
H    0.287   -2.768    1.624
36
Created with MDTraj 1.9.1, 2018-10-15
H    1.767    3.173    2.615
C    1.914    2.222    2.120
H    2.799    1.761    2.545
H    2.075    2.384    1.062
C    0.722    1.339    2.415
O    0.275    1.242    3.534
N    0.214    0.662    1.370
H    0.669    0.724    0.487
C   -0.969   -0.179    1.442
H   -1.607    0.244    2.209
C   -1.728   -0.149    0.106
H   -2.204    0.822    0.025
H   -2.518   -0.885    0.160
C   -0.886   -0.382   -1.123
C   -0.506   -1.569   -1.649
H   -0.710   -2.554   -1.286
N    0.245   -1.375   -2.778
H    0.634   -2.098   -3.335
C    0.371   -0.032   -3.010
C    1.038    0.651   -4.025
H    1.569    0.123   -4.797
C    0.994    2.025   -4.005
H    1.499    2.583   -4.774
C    0.300    2.715   -2.999
H    0.282    3.791   -3.016
C   -0.357    2.035   -2.001
H   -0.890    2.576   -1.238
C   -0.328    0.635   -1.993
C   -0.647   -1.614    1.894
O   -0.969   -2.580    1.248
N   -0.018   -1.707    3.076
H    0.121   -0.874    3.607
C    0.290   -2.990    3.665
H   -0.609   -3.533    3.936
H    0.883   -2.826    4.556
H    0.857   -3.599    2.974
36
Created with MDTraj 1.9.1, 2018-10-15
H    4.135    0.586   -1.424
C    3.337    0.866   -0.751
H    2.771    1.680   -1.194
H    3.754    1.217    0.186
C    2.425   -0.324   -0.545
O    2.458   -1.292   -1.251
N    1.576   -0.223    0.519
H    1.475    0.688    0.908
C    0.413   -1.088    0.669
H   -0.097   -0.714    1.551
C   -0.569   -1.041   -0.518
H   -1.442   -1.616   -0.239
H   -0.122   -1.546   -1.363
C   -0.955    0.357   -0.908
C   -0.604    0.997   -2.044
H   -0.021    0.634   -2.866
N   -1.109    2.276   -2.057
H   -1.064    2.900   -2.828
C   -1.833    2.476   -0.913
C   -2.544    3.594   -0.481
H   -2.591    4.490   -1.076
C   -3.189    3.511    0.731
H   -3.748    4.355    1.092
C   -3.135    2.341    1.505
H   -3.657    2.307    2.444
C   -2.431    1.242    1.072
H   -2.411    0.345    1.667
C   -1.760    1.299   -0.155
C    0.772   -2.536    1.020
O   -0.005   -3.424    0.797
N    1.929   -2.724    1.685
H    2.588   -1.983    1.680
C    2.394   -4.059    1.995
H    1.603   -4.620    2.470
H    3.231   -3.984    2.678
H    2.710   -4.594    1.106
36
Created with MDTraj 1.9.1, 2018-10-15
H    4.740    2.387    1.453
C    4.402    2.317    0.425
H    5.081    1.675   -0.123
H    4.422    3.312    0.001
C    2.974    1.817    0.422
O    2.059    2.522    0.767
N    2.798    0.539    0.034
H    3.567   -0.029   -0.244
C    1.499   -0.090    0.034
H    0.953    0.266    0.896
C    0.706    0.257   -1.249
H    1.194   -0.216   -2.095
H    0.794    1.328   -1.385
C   -0.745   -0.126   -1.199
C   -1.368   -1.085   -1.916
H   -0.965   -1.747   -2.655
N   -2.699   -1.148   -1.581
H   -3.373   -1.730   -2.019
C   -2.964   -0.195   -0.633
C   -4.159    0.138    0.004
H   -5.075   -0.381   -0.216
C   -4.122    1.160    0.924
H   -5.026    1.443    1.434
C   -2.930    1.844    1.211
H   -2.942    2.642    1.932
C   -1.754    1.513    0.580
H   -0.846    2.048    0.796
C   -1.763    0.472   -0.358
C    1.729   -1.594    0.150
O    2.718   -2.105   -0.312
N    0.773   -2.289    0.788
H   -0.073   -1.820    1.020
C    0.798   -3.734    0.847
H    1.785   -4.070    1.128
H    0.540   -4.183   -0.107
H    0.087   -4.063    1.593
