12
 generated by VMD
  C       16.150801       -9.373500       -0.079600
  C       14.886700      -10.199600        0.049700
  O       16.131300       -8.208600       -0.482400
  N       17.304600      -10.028500        0.251200
  C       18.608000       -9.406900        0.121100
  H       14.086600       -9.549700        0.405700
  H       14.996400      -11.047600        0.730600
  H       14.601800      -10.575700       -0.937000
  H       17.249500      -10.991500        0.550900
  H       18.436800       -8.364000       -0.143400
  H       19.158100       -9.456900        1.064700
  H       19.201401       -9.883200       -0.665500
